Wed Jul 23 14:17:59 2025       
+-----------------------------------------------------------------------------------------+
| NVIDIA-SMI 550.163.01             Driver Version: 550.163.01     CUDA Version: 12.4     |
|-----------------------------------------+------------------------+----------------------+
| GPU  Name                 Persistence-M | Bus-Id          Disp.A | Volatile Uncorr. ECC |
| Fan  Temp   Perf          Pwr:Usage/Cap |           Memory-Usage | GPU-Util  Compute M. |
|                                         |                        |               MIG M. |
|=========================================+========================+======================|
|   0  NVIDIA A40                     On  |   00000000:C7:00.0 Off |                    0 |
|  0%   29C    P0             43W /  300W |       1MiB /  46068MiB |      0%      Default |
|                                         |                        |                  N/A |
+-----------------------------------------+------------------------+----------------------+
                                                                                         
+-----------------------------------------------------------------------------------------+
| Processes:                                                                              |
|  GPU   GI   CI        PID   Type   Process name                              GPU Memory |
|        ID   ID                                                               Usage      |
|=========================================================================================|
|  No running processes found                                                             |
+-----------------------------------------------------------------------------------------+
Starting Adaptive Scaling Model Inference
========================================
Job ID: 11198660
Node: gpub041

Input file: /u/tawal/BSSN-Extracted-Data/tt_q08/bssn_gr_11200_extracted.hdf5
Output file: ./reconstructed/bssn_gr_11200_adaptive_reconstructed.hdf5
Model checkpoint: ./save/swae_adaptive_scaling/best_model.pth
Scaling parameters: ./scaling_params.json

Using device: cuda
Loading adaptive scaling model...
✓ Loaded model from epoch 107
✓ Validation loss: 0.131015
✓ Loaded scaling parameters for 24 variables

Processing /u/tawal/BSSN-Extracted-Data/tt_q08/bssn_gr_11200_extracted.hdf5...
Found 24 U_ variables to process

Processing U_ALPHA...
  Processing U_ALPHA...
  Metrics: PSNR=58.76 dB, MSE=1.313442e-06, MAE=5.309610e-04, RelErr=0.10%

Processing U_CHI...
  Processing U_CHI...
  Metrics: PSNR=59.27 dB, MSE=1.175364e-06, MAE=5.023228e-04, RelErr=0.12%

Processing U_K...
  Processing U_K...
  Metrics: PSNR=65.53 dB, MSE=1.675433e-07, MAE=1.034373e-04, RelErr=141073.20%

Processing U_GT0...
  Processing U_GT0...
  Metrics: PSNR=64.26 dB, MSE=7.081458e-07, MAE=3.290159e-04, RelErr=872134.88%

Processing U_GT1...
  Processing U_GT1...
  Metrics: PSNR=61.31 dB, MSE=1.500529e-06, MAE=3.957910e-04, RelErr=529213.38%

Processing U_GT2...
  Processing U_GT2...
  Metrics: PSNR=65.09 dB, MSE=5.085347e-09, MAE=2.582792e-05, RelErr=33077.97%

Processing U_BETA0...
  Processing U_BETA0...
  Metrics: PSNR=64.25 dB, MSE=9.619787e-08, MAE=1.197867e-04, RelErr=388550.94%

Processing U_BETA1...
  Processing U_BETA1...
  Metrics: PSNR=61.25 dB, MSE=2.120486e-07, MAE=1.476329e-04, RelErr=207692.91%

Processing U_BETA2...
  Processing U_BETA2...
  Metrics: PSNR=68.23 dB, MSE=7.073838e-10, MAE=9.672971e-06, RelErr=15343.08%

Processing U_B0...
  Processing U_B0...
  Metrics: PSNR=65.46 dB, MSE=8.560599e-09, MAE=2.415040e-05, RelErr=22855.27%

Processing U_B1...
  Processing U_B1...
  Metrics: PSNR=65.83 dB, MSE=7.879208e-09, MAE=2.104806e-05, RelErr=20392.36%

Processing U_B2...
  Processing U_B2...
  Metrics: PSNR=68.82 dB, MSE=9.323675e-10, MAE=3.836748e-06, RelErr=1395.72%

Processing U_SYMGT0...
  Processing U_SYMGT0...
  Metrics: PSNR=49.51 dB, MSE=2.509492e-06, MAE=7.539959e-04, RelErr=0.07%

Processing U_SYMGT1...
  Processing U_SYMGT1...
  Metrics: PSNR=63.16 dB, MSE=1.206170e-07, MAE=1.440607e-04, RelErr=347.42%

Processing U_SYMGT2...
  Processing U_SYMGT2...
  Metrics: PSNR=68.85 dB, MSE=1.893654e-09, MAE=1.471758e-05, RelErr=1148.90%

Processing U_SYMGT3...
  Processing U_SYMGT3...
  Metrics: PSNR=50.36 dB, MSE=2.500761e-06, MAE=7.542395e-04, RelErr=0.07%

Processing U_SYMGT4...
  Processing U_SYMGT4...
  Metrics: PSNR=69.66 dB, MSE=1.676308e-09, MAE=1.479205e-05, RelErr=115.51%

Processing U_SYMGT5...
  Processing U_SYMGT5...
  Metrics: PSNR=41.75 dB, MSE=2.223678e-06, MAE=7.085012e-04, RelErr=0.07%

Processing U_SYMAT0...
  Processing U_SYMAT0...
  Metrics: PSNR=61.33 dB, MSE=1.012779e-05, MAE=5.294357e-04, RelErr=43863.58%

Processing U_SYMAT1...
  Processing U_SYMAT1...
  Metrics: PSNR=62.51 dB, MSE=8.614984e-06, MAE=4.476820e-04, RelErr=24200.72%

Processing U_SYMAT2...
  Processing U_SYMAT2...
  Metrics: PSNR=69.54 dB, MSE=1.548019e-06, MAE=9.929397e-05, RelErr=84732.74%

Processing U_SYMAT3...
  Processing U_SYMAT3...
  Metrics: PSNR=61.00 dB, MSE=1.217471e-05, MAE=5.449592e-04, RelErr=19652.67%

Processing U_SYMAT4...
  Processing U_SYMAT4...
  Metrics: PSNR=68.67 dB, MSE=1.962553e-06, MAE=1.007277e-04, RelErr=29216.38%

Processing U_SYMAT5...
  Processing U_SYMAT5...
  Metrics: PSNR=64.26 dB, MSE=4.917346e-06, MAE=2.738460e-04, RelErr=19818.37%

Saving reconstructed data to ./reconstructed/bssn_gr_11200_adaptive_reconstructed.hdf5...
Saving latent codes to ./reconstructed/bssn_gr_11200_adaptive_latent_codes.npz...

================================================================================
RECONSTRUCTION SUMMARY
================================================================================
Variable     PSNR (dB)    MSE          MAE          Rel Error   
------------------------------------------------------------
U_ALPHA      58.76        1.313e-06    5.310e-04    0.10%       
U_B0         65.46        8.561e-09    2.415e-05    22855.27%   
U_B1         65.83        7.879e-09    2.105e-05    20392.36%   
U_B2         68.82        9.324e-10    3.837e-06    1395.72%    
U_BETA0      64.25        9.620e-08    1.198e-04    388550.94%  
U_BETA1      61.25        2.120e-07    1.476e-04    207692.91%  
U_BETA2      68.23        7.074e-10    9.673e-06    15343.08%   
U_CHI        59.27        1.175e-06    5.023e-04    0.12%       
U_GT0        64.26        7.081e-07    3.290e-04    872134.88%  
U_GT1        61.31        1.501e-06    3.958e-04    529213.38%  
U_GT2        65.09        5.085e-09    2.583e-05    33077.97%   
U_K          65.53        1.675e-07    1.034e-04    141073.20%  
U_SYMAT0     61.33        1.013e-05    5.294e-04    43863.58%   
U_SYMAT1     62.51        8.615e-06    4.477e-04    24200.72%   
U_SYMAT2     69.54        1.548e-06    9.929e-05    84732.74%   
U_SYMAT3     61.00        1.217e-05    5.450e-04    19652.67%   
U_SYMAT4     68.67        1.963e-06    1.007e-04    29216.38%   
U_SYMAT5     64.26        4.917e-06    2.738e-04    19818.37%   
U_SYMGT0     49.51        2.509e-06    7.540e-04    0.07%       
U_SYMGT1     63.16        1.206e-07    1.441e-04    347.42%     
U_SYMGT2     68.85        1.894e-09    1.472e-05    1148.90%    
U_SYMGT3     50.36        2.501e-06    7.542e-04    0.07%       
U_SYMGT4     69.66        1.676e-09    1.479e-05    115.51%     
U_SYMGT5     41.75        2.224e-06    7.085e-04    0.07%       
------------------------------------------------------------
AVERAGE      62.44        2.162e-06    2.750e-04    102284.44%  

Total time: 10.9 seconds

Inference completed!
Reconstructed file: ./reconstructed/bssn_gr_11200_adaptive_reconstructed.hdf5
Latent codes: ./reconstructed/bssn_gr_11200_adaptive_latent_codes.npz

Creating visualization plots...
==============================
Loading data...
Found 24 variables to plot

Creating individual variable plots...
  Plotting U_ALPHA...
  Plotting U_CHI...
  Plotting U_K...
  Plotting U_GT0...
  Plotting U_GT1...
  Plotting U_GT2...
  Plotting U_BETA0...
  Plotting U_BETA1...
  Plotting U_BETA2...
  Plotting U_B0...
  Plotting U_B1...
  Plotting U_B2...
  Plotting U_SYMGT0...
  Plotting U_SYMGT1...
  Plotting U_SYMGT2...
  Plotting U_SYMGT3...
  Plotting U_SYMGT4...
  Plotting U_SYMGT5...
  Plotting U_SYMAT0...
  Plotting U_SYMAT1...
  Plotting U_SYMAT2...
  Plotting U_SYMAT3...
  Plotting U_SYMAT4...
  Plotting U_SYMAT5...

Creating summary plot...

Plots saved to: ./reconstruction_plots_adaptive
Summary plot: ./reconstruction_plots_adaptive/performance_summary.png

Variable assignments:
Poslog model: ['U_ALPHA', 'U_CHI', 'U_K', 'U_GT0', 'U_GT1', 'U_BETA0', 'U_BETA1', 'U_BETA2', 'U_B0', 'U_B1', 'U_SYMGT0', 'U_SYMGT1', 'U_SYMGT3', 'U_SYMGT4', 'U_SYMGT5', 'U_SYMAT0', 'U_SYMAT1', 'U_SYMAT5']
Asinh model: ['U_GT2', 'U_B2', 'U_SYMGT2', 'U_SYMAT2', 'U_SYMAT3', 'U_SYMAT4']

Creating focused plots for problematic variables...
Loading data...
Found 6 variables to plot

Creating individual variable plots...
  Plotting U_GT2...
  Plotting U_B2...
  Plotting U_SYMGT2...
  Plotting U_SYMAT2...
  Plotting U_SYMAT3...
  Plotting U_SYMAT4...

Creating summary plot...

Plots saved to: ./reconstruction_plots_adaptive/problematic_vars
Summary plot: ./reconstruction_plots_adaptive/problematic_vars/performance_summary.png

Variable assignments:
Poslog model: []
Asinh model: ['U_GT2', 'U_B2', 'U_SYMGT2', 'U_SYMAT2', 'U_SYMAT3', 'U_SYMAT4']

All processing completed!
========================
Reconstructed file: ./reconstructed/bssn_gr_11200_adaptive_reconstructed.hdf5
Latent codes: ./reconstructed/bssn_gr_11200_adaptive_latent_codes.npz
Plots saved to: ./reconstruction_plots_adaptive
