Wed Jul 23 14:42:57 2025       
+-----------------------------------------------------------------------------------------+
| NVIDIA-SMI 550.163.01             Driver Version: 550.163.01     CUDA Version: 12.4     |
|-----------------------------------------+------------------------+----------------------+
| GPU  Name                 Persistence-M | Bus-Id          Disp.A | Volatile Uncorr. ECC |
| Fan  Temp   Perf          Pwr:Usage/Cap |           Memory-Usage | GPU-Util  Compute M. |
|                                         |                        |               MIG M. |
|=========================================+========================+======================|
|   0  NVIDIA A40                     On  |   00000000:C7:00.0 Off |                    0 |
|  0%   27C    P0             38W /  300W |       1MiB /  46068MiB |      0%      Default |
|                                         |                        |                  N/A |
+-----------------------------------------+------------------------+----------------------+
                                                                                         
+-----------------------------------------------------------------------------------------+
| Processes:                                                                              |
|  GPU   GI   CI        PID   Type   Process name                              GPU Memory |
|        ID   ID                                                               Usage      |
|=========================================================================================|
|  No running processes found                                                             |
+-----------------------------------------------------------------------------------------+
Starting Adaptive Scaling Model Inference
========================================
Job ID: 11198914
Node: gpub020

Input file: /u/tawal/BSSN-Extracted-Data/tt_q08/bssn_gr_11200_extracted.hdf5
Output file: ./reconstructed/bssn_gr_11200_adaptive_reconstructed.hdf5
Model checkpoint: ./save/swae_adaptive_scaling/best_model.pth
Scaling parameters: ./scaling_params.json

Using device: cuda
Loading adaptive scaling model...
✓ Loaded model from epoch 11
✓ Validation loss: 0.046985
✓ Loaded scaling parameters for 2 variables

Processing /u/tawal/BSSN-Extracted-Data/tt_q08/bssn_gr_11200_extracted.hdf5...
Found 24 U_ variables to process

Processing U_ALPHA...
  Processing U_ALPHA...
Warning: No scaling params for U_ALPHA, using identity
Warning: No scaling params for U_ALPHA, using identity
Warning: No scaling params for U_ALPHA, using identity
Warning: No scaling params for U_ALPHA, using identity
Warning: No scaling params for U_ALPHA, using identity
Warning: No scaling params for U_ALPHA, using identity
Warning: No scaling params for U_ALPHA, using identity
Warning: No scaling params for U_ALPHA, using identity
Warning: No scaling params for U_ALPHA, using identity
Warning: No scaling params for U_ALPHA, using identity
Warning: No scaling params for U_ALPHA, using identity
Warning: No scaling params for U_ALPHA, using identity
Warning: No scaling params for U_ALPHA, using identity
Warning: No scaling params for U_ALPHA, using identity
  Metrics: PSNR=2.45 dB, MSE=5.607323e-01, MAE=4.427745e-01, RelErr=83.73%

Processing U_CHI...
  Processing U_CHI...
Warning: No scaling params for U_CHI, using identity
Warning: No scaling params for U_CHI, using identity
Warning: No scaling params for U_CHI, using identity
Warning: No scaling params for U_CHI, using identity
Warning: No scaling params for U_CHI, using identity
Warning: No scaling params for U_CHI, using identity
Warning: No scaling params for U_CHI, using identity
Warning: No scaling params for U_CHI, using identity
Warning: No scaling params for U_CHI, using identity
Warning: No scaling params for U_CHI, using identity
Warning: No scaling params for U_CHI, using identity
Warning: No scaling params for U_CHI, using identity
Warning: No scaling params for U_CHI, using identity
Warning: No scaling params for U_CHI, using identity
  Metrics: PSNR=2.33 dB, MSE=5.811603e-01, MAE=4.511026e-01, RelErr=132.67%

Processing U_K...
  Processing U_K...
Warning: No scaling params for U_K, using identity
Warning: No scaling params for U_K, using identity
Warning: No scaling params for U_K, using identity
Warning: No scaling params for U_K, using identity
Warning: No scaling params for U_K, using identity
Warning: No scaling params for U_K, using identity
Warning: No scaling params for U_K, using identity
Warning: No scaling params for U_K, using identity
Warning: No scaling params for U_K, using identity
Warning: No scaling params for U_K, using identity
Warning: No scaling params for U_K, using identity
Warning: No scaling params for U_K, using identity
Warning: No scaling params for U_K, using identity
Warning: No scaling params for U_K, using identity
  Metrics: PSNR=-0.65 dB, MSE=6.950215e-01, MAE=4.960497e-01, RelErr=4181563114.30%

Processing U_GT0...
  Processing U_GT0...
Warning: No scaling params for U_GT0, using identity
Warning: No scaling params for U_GT0, using identity
Warning: No scaling params for U_GT0, using identity
Warning: No scaling params for U_GT0, using identity
Warning: No scaling params for U_GT0, using identity
Warning: No scaling params for U_GT0, using identity
Warning: No scaling params for U_GT0, using identity
Warning: No scaling params for U_GT0, using identity
Warning: No scaling params for U_GT0, using identity
Warning: No scaling params for U_GT0, using identity
Warning: No scaling params for U_GT0, using identity
Warning: No scaling params for U_GT0, using identity
Warning: No scaling params for U_GT0, using identity
Warning: No scaling params for U_GT0, using identity
  Metrics: PSNR=4.42 dB, MSE=6.819847e-01, MAE=4.911081e-01, RelErr=6375543461.38%

Processing U_GT1...
  Processing U_GT1...
Warning: No scaling params for U_GT1, using identity
Warning: No scaling params for U_GT1, using identity
Warning: No scaling params for U_GT1, using identity
Warning: No scaling params for U_GT1, using identity
Warning: No scaling params for U_GT1, using identity
Warning: No scaling params for U_GT1, using identity
Warning: No scaling params for U_GT1, using identity
Warning: No scaling params for U_GT1, using identity
Warning: No scaling params for U_GT1, using identity
Warning: No scaling params for U_GT1, using identity
Warning: No scaling params for U_GT1, using identity
Warning: No scaling params for U_GT1, using identity
Warning: No scaling params for U_GT1, using identity
Warning: No scaling params for U_GT1, using identity
  Metrics: PSNR=4.69 dB, MSE=6.886692e-01, MAE=4.937025e-01, RelErr=6593674444.92%

Processing U_GT2...
  Processing U_GT2...
Warning: No scaling params for U_GT2, using identity
Warning: No scaling params for U_GT2, using identity
Warning: No scaling params for U_GT2, using identity
Warning: No scaling params for U_GT2, using identity
Warning: No scaling params for U_GT2, using identity
Warning: No scaling params for U_GT2, using identity
Warning: No scaling params for U_GT2, using identity
Warning: No scaling params for U_GT2, using identity
Warning: No scaling params for U_GT2, using identity
Warning: No scaling params for U_GT2, using identity
Warning: No scaling params for U_GT2, using identity
Warning: No scaling params for U_GT2, using identity
Warning: No scaling params for U_GT2, using identity
Warning: No scaling params for U_GT2, using identity
  Metrics: PSNR=-16.30 dB, MSE=6.998534e-01, MAE=4.978857e-01, RelErr=3064866134.70%

Processing U_BETA0...
  Processing U_BETA0...
Warning: No scaling params for U_BETA0, using identity
Warning: No scaling params for U_BETA0, using identity
Warning: No scaling params for U_BETA0, using identity
Warning: No scaling params for U_BETA0, using identity
Warning: No scaling params for U_BETA0, using identity
Warning: No scaling params for U_BETA0, using identity
Warning: No scaling params for U_BETA0, using identity
Warning: No scaling params for U_BETA0, using identity
Warning: No scaling params for U_BETA0, using identity
Warning: No scaling params for U_BETA0, using identity
Warning: No scaling params for U_BETA0, using identity
Warning: No scaling params for U_BETA0, using identity
Warning: No scaling params for U_BETA0, using identity
Warning: No scaling params for U_BETA0, using identity
  Metrics: PSNR=-4.36 dB, MSE=6.981118e-01, MAE=4.972264e-01, RelErr=7638781725.66%

Processing U_BETA1...
  Processing U_BETA1...
Warning: No scaling params for U_BETA1, using identity
Warning: No scaling params for U_BETA1, using identity
Warning: No scaling params for U_BETA1, using identity
Warning: No scaling params for U_BETA1, using identity
Warning: No scaling params for U_BETA1, using identity
Warning: No scaling params for U_BETA1, using identity
Warning: No scaling params for U_BETA1, using identity
Warning: No scaling params for U_BETA1, using identity
Warning: No scaling params for U_BETA1, using identity
Warning: No scaling params for U_BETA1, using identity
Warning: No scaling params for U_BETA1, using identity
Warning: No scaling params for U_BETA1, using identity
Warning: No scaling params for U_BETA1, using identity
Warning: No scaling params for U_BETA1, using identity
  Metrics: PSNR=-3.95 dB, MSE=7.009080e-01, MAE=4.982812e-01, RelErr=7043366482.55%

Processing U_BETA2...
  Processing U_BETA2...
Warning: No scaling params for U_BETA2, using identity
Warning: No scaling params for U_BETA2, using identity
Warning: No scaling params for U_BETA2, using identity
Warning: No scaling params for U_BETA2, using identity
Warning: No scaling params for U_BETA2, using identity
Warning: No scaling params for U_BETA2, using identity
Warning: No scaling params for U_BETA2, using identity
Warning: No scaling params for U_BETA2, using identity
Warning: No scaling params for U_BETA2, using identity
Warning: No scaling params for U_BETA2, using identity
Warning: No scaling params for U_BETA2, using identity
Warning: No scaling params for U_BETA2, using identity
Warning: No scaling params for U_BETA2, using identity
Warning: No scaling params for U_BETA2, using identity
  Metrics: PSNR=-21.74 dB, MSE=7.011341e-01, MAE=4.983544e-01, RelErr=3728453569.32%

Processing U_B0...
  Processing U_B0...
Warning: No scaling params for U_B0, using identity
Warning: No scaling params for U_B0, using identity
Warning: No scaling params for U_B0, using identity
Warning: No scaling params for U_B0, using identity
Warning: No scaling params for U_B0, using identity
Warning: No scaling params for U_B0, using identity
Warning: No scaling params for U_B0, using identity
Warning: No scaling params for U_B0, using identity
Warning: No scaling params for U_B0, using identity
Warning: No scaling params for U_B0, using identity
Warning: No scaling params for U_B0, using identity
Warning: No scaling params for U_B0, using identity
Warning: No scaling params for U_B0, using identity
Warning: No scaling params for U_B0, using identity
  Metrics: PSNR=-13.68 dB, MSE=7.015316e-01, MAE=4.984975e-01, RelErr=4463494005.45%

Processing U_B1...
  Processing U_B1...
Warning: No scaling params for U_B1, using identity
Warning: No scaling params for U_B1, using identity
Warning: No scaling params for U_B1, using identity
Warning: No scaling params for U_B1, using identity
Warning: No scaling params for U_B1, using identity
Warning: No scaling params for U_B1, using identity
Warning: No scaling params for U_B1, using identity
Warning: No scaling params for U_B1, using identity
Warning: No scaling params for U_B1, using identity
Warning: No scaling params for U_B1, using identity
Warning: No scaling params for U_B1, using identity
Warning: No scaling params for U_B1, using identity
Warning: No scaling params for U_B1, using identity
Warning: No scaling params for U_B1, using identity
  Metrics: PSNR=-13.67 dB, MSE=7.019137e-01, MAE=4.986406e-01, RelErr=4299931751.15%

Processing U_B2...
  Processing U_B2...
Warning: No scaling params for U_B2, using identity
Warning: No scaling params for U_B2, using identity
Warning: No scaling params for U_B2, using identity
Warning: No scaling params for U_B2, using identity
Warning: No scaling params for U_B2, using identity
Warning: No scaling params for U_B2, using identity
Warning: No scaling params for U_B2, using identity
Warning: No scaling params for U_B2, using identity
Warning: No scaling params for U_B2, using identity
Warning: No scaling params for U_B2, using identity
Warning: No scaling params for U_B2, using identity
Warning: No scaling params for U_B2, using identity
Warning: No scaling params for U_B2, using identity
Warning: No scaling params for U_B2, using identity
  Metrics: PSNR=-19.95 dB, MSE=7.018459e-01, MAE=4.986146e-01, RelErr=2414593377.41%

Processing U_SYMGT0...
  Processing U_SYMGT0...
Warning: No scaling params for U_SYMGT0, using identity
Warning: No scaling params for U_SYMGT0, using identity
Warning: No scaling params for U_SYMGT0, using identity
Warning: No scaling params for U_SYMGT0, using identity
Warning: No scaling params for U_SYMGT0, using identity
Warning: No scaling params for U_SYMGT0, using identity
Warning: No scaling params for U_SYMGT0, using identity
Warning: No scaling params for U_SYMGT0, using identity
Warning: No scaling params for U_SYMGT0, using identity
Warning: No scaling params for U_SYMGT0, using identity
Warning: No scaling params for U_SYMGT0, using identity
Warning: No scaling params for U_SYMGT0, using identity
Warning: No scaling params for U_SYMGT0, using identity
Warning: No scaling params for U_SYMGT0, using identity
  Metrics: PSNR=-3.11 dB, MSE=4.589073e-01, MAE=3.988991e-01, RelErr=39.51%

Processing U_SYMGT1...
  Processing U_SYMGT1...
Warning: No scaling params for U_SYMGT1, using identity
Warning: No scaling params for U_SYMGT1, using identity
Warning: No scaling params for U_SYMGT1, using identity
Warning: No scaling params for U_SYMGT1, using identity
Warning: No scaling params for U_SYMGT1, using identity
Warning: No scaling params for U_SYMGT1, using identity
Warning: No scaling params for U_SYMGT1, using identity
Warning: No scaling params for U_SYMGT1, using identity
Warning: No scaling params for U_SYMGT1, using identity
Warning: No scaling params for U_SYMGT1, using identity
Warning: No scaling params for U_SYMGT1, using identity
Warning: No scaling params for U_SYMGT1, using identity
Warning: No scaling params for U_SYMGT1, using identity
Warning: No scaling params for U_SYMGT1, using identity
  Metrics: PSNR=-4.43 dB, MSE=6.930839e-01, MAE=4.953399e-01, RelErr=8666367.65%

Processing U_SYMGT2...
  Processing U_SYMGT2...
Warning: No scaling params for U_SYMGT2, using identity
Warning: No scaling params for U_SYMGT2, using identity
Warning: No scaling params for U_SYMGT2, using identity
Warning: No scaling params for U_SYMGT2, using identity
Warning: No scaling params for U_SYMGT2, using identity
Warning: No scaling params for U_SYMGT2, using identity
Warning: No scaling params for U_SYMGT2, using identity
Warning: No scaling params for U_SYMGT2, using identity
Warning: No scaling params for U_SYMGT2, using identity
Warning: No scaling params for U_SYMGT2, using identity
Warning: No scaling params for U_SYMGT2, using identity
Warning: No scaling params for U_SYMGT2, using identity
Warning: No scaling params for U_SYMGT2, using identity
Warning: No scaling params for U_SYMGT2, using identity
  Metrics: PSNR=-16.84 dB, MSE=7.017442e-01, MAE=4.985776e-01, RelErr=218273574.81%

Processing U_SYMGT3...
  Processing U_SYMGT3...
Warning: No scaling params for U_SYMGT3, using identity
Warning: No scaling params for U_SYMGT3, using identity
Warning: No scaling params for U_SYMGT3, using identity
Warning: No scaling params for U_SYMGT3, using identity
Warning: No scaling params for U_SYMGT3, using identity
Warning: No scaling params for U_SYMGT3, using identity
Warning: No scaling params for U_SYMGT3, using identity
Warning: No scaling params for U_SYMGT3, using identity
Warning: No scaling params for U_SYMGT3, using identity
Warning: No scaling params for U_SYMGT3, using identity
Warning: No scaling params for U_SYMGT3, using identity
Warning: No scaling params for U_SYMGT3, using identity
Warning: No scaling params for U_SYMGT3, using identity
Warning: No scaling params for U_SYMGT3, using identity
  Metrics: PSNR=-2.19 dB, MSE=4.492858e-01, MAE=3.943700e-01, RelErr=37.81%

Processing U_SYMGT4...
  Processing U_SYMGT4...
Warning: No scaling params for U_SYMGT4, using identity
Warning: No scaling params for U_SYMGT4, using identity
Warning: No scaling params for U_SYMGT4, using identity
Warning: No scaling params for U_SYMGT4, using identity
Warning: No scaling params for U_SYMGT4, using identity
Warning: No scaling params for U_SYMGT4, using identity
Warning: No scaling params for U_SYMGT4, using identity
Warning: No scaling params for U_SYMGT4, using identity
Warning: No scaling params for U_SYMGT4, using identity
Warning: No scaling params for U_SYMGT4, using identity
Warning: No scaling params for U_SYMGT4, using identity
Warning: No scaling params for U_SYMGT4, using identity
Warning: No scaling params for U_SYMGT4, using identity
Warning: No scaling params for U_SYMGT4, using identity
  Metrics: PSNR=-16.56 dB, MSE=7.018565e-01, MAE=4.986186e-01, RelErr=30283180.07%

Processing U_SYMGT5...
  Processing U_SYMGT5...
Warning: No scaling params for U_SYMGT5, using identity
Warning: No scaling params for U_SYMGT5, using identity
Warning: No scaling params for U_SYMGT5, using identity
Warning: No scaling params for U_SYMGT5, using identity
Warning: No scaling params for U_SYMGT5, using identity
Warning: No scaling params for U_SYMGT5, using identity
Warning: No scaling params for U_SYMGT5, using identity
Warning: No scaling params for U_SYMGT5, using identity
Warning: No scaling params for U_SYMGT5, using identity
Warning: No scaling params for U_SYMGT5, using identity
Warning: No scaling params for U_SYMGT5, using identity
Warning: No scaling params for U_SYMGT5, using identity
Warning: No scaling params for U_SYMGT5, using identity
Warning: No scaling params for U_SYMGT5, using identity
  Metrics: PSNR=-11.56 dB, MSE=4.768022e-01, MAE=4.071777e-01, RelErr=42.90%

Processing U_SYMAT0...
  Processing U_SYMAT0...
Warning: No scaling params for U_SYMAT0, using identity
Warning: No scaling params for U_SYMAT0, using identity
Warning: No scaling params for U_SYMAT0, using identity
Warning: No scaling params for U_SYMAT0, using identity
Warning: No scaling params for U_SYMAT0, using identity
Warning: No scaling params for U_SYMAT0, using identity
Warning: No scaling params for U_SYMAT0, using identity
Warning: No scaling params for U_SYMAT0, using identity
Warning: No scaling params for U_SYMAT0, using identity
Warning: No scaling params for U_SYMAT0, using identity
Warning: No scaling params for U_SYMAT0, using identity
Warning: No scaling params for U_SYMAT0, using identity
Warning: No scaling params for U_SYMAT0, using identity
Warning: No scaling params for U_SYMAT0, using identity
  Metrics: PSNR=12.97 dB, MSE=6.930030e-01, MAE=4.952499e-01, RelErr=449642592.04%

Processing U_SYMAT1...
  Processing U_SYMAT1...
Warning: No scaling params for U_SYMAT1, using identity
Warning: No scaling params for U_SYMAT1, using identity
Warning: No scaling params for U_SYMAT1, using identity
Warning: No scaling params for U_SYMAT1, using identity
Warning: No scaling params for U_SYMAT1, using identity
Warning: No scaling params for U_SYMAT1, using identity
Warning: No scaling params for U_SYMAT1, using identity
Warning: No scaling params for U_SYMAT1, using identity
Warning: No scaling params for U_SYMAT1, using identity
Warning: No scaling params for U_SYMAT1, using identity
Warning: No scaling params for U_SYMAT1, using identity
Warning: No scaling params for U_SYMAT1, using identity
Warning: No scaling params for U_SYMAT1, using identity
Warning: No scaling params for U_SYMAT1, using identity
  Metrics: PSNR=13.46 dB, MSE=6.910592e-01, MAE=4.944881e-01, RelErr=272177518.37%

Processing U_SYMAT2...
  Processing U_SYMAT2...
Warning: No scaling params for U_SYMAT2, using identity
Warning: No scaling params for U_SYMAT2, using identity
Warning: No scaling params for U_SYMAT2, using identity
Warning: No scaling params for U_SYMAT2, using identity
Warning: No scaling params for U_SYMAT2, using identity
Warning: No scaling params for U_SYMAT2, using identity
Warning: No scaling params for U_SYMAT2, using identity
Warning: No scaling params for U_SYMAT2, using identity
Warning: No scaling params for U_SYMAT2, using identity
Warning: No scaling params for U_SYMAT2, using identity
Warning: No scaling params for U_SYMAT2, using identity
Warning: No scaling params for U_SYMAT2, using identity
Warning: No scaling params for U_SYMAT2, using identity
Warning: No scaling params for U_SYMAT2, using identity
  Metrics: PSNR=12.99 dB, MSE=7.000786e-01, MAE=4.979257e-01, RelErr=4995544576.55%

Processing U_SYMAT3...
  Processing U_SYMAT3...
Warning: No scaling params for U_SYMAT3, using identity
Warning: No scaling params for U_SYMAT3, using identity
Warning: No scaling params for U_SYMAT3, using identity
Warning: No scaling params for U_SYMAT3, using identity
Warning: No scaling params for U_SYMAT3, using identity
Warning: No scaling params for U_SYMAT3, using identity
Warning: No scaling params for U_SYMAT3, using identity
Warning: No scaling params for U_SYMAT3, using identity
Warning: No scaling params for U_SYMAT3, using identity
Warning: No scaling params for U_SYMAT3, using identity
Warning: No scaling params for U_SYMAT3, using identity
Warning: No scaling params for U_SYMAT3, using identity
Warning: No scaling params for U_SYMAT3, using identity
Warning: No scaling params for U_SYMAT3, using identity
  Metrics: PSNR=13.45 dB, MSE=6.925038e-01, MAE=4.950629e-01, RelErr=176660673.99%

Processing U_SYMAT4...
  Processing U_SYMAT4...
Warning: No scaling params for U_SYMAT4, using identity
Warning: No scaling params for U_SYMAT4, using identity
Warning: No scaling params for U_SYMAT4, using identity
Warning: No scaling params for U_SYMAT4, using identity
Warning: No scaling params for U_SYMAT4, using identity
Warning: No scaling params for U_SYMAT4, using identity
Warning: No scaling params for U_SYMAT4, using identity
Warning: No scaling params for U_SYMAT4, using identity
Warning: No scaling params for U_SYMAT4, using identity
Warning: No scaling params for U_SYMAT4, using identity
Warning: No scaling params for U_SYMAT4, using identity
Warning: No scaling params for U_SYMAT4, using identity
Warning: No scaling params for U_SYMAT4, using identity
Warning: No scaling params for U_SYMAT4, using identity
  Metrics: PSNR=13.15 dB, MSE=6.997457e-01, MAE=4.977941e-01, RelErr=1515934576.49%

Processing U_SYMAT5...
  Processing U_SYMAT5...
Warning: No scaling params for U_SYMAT5, using identity
Warning: No scaling params for U_SYMAT5, using identity
Warning: No scaling params for U_SYMAT5, using identity
Warning: No scaling params for U_SYMAT5, using identity
Warning: No scaling params for U_SYMAT5, using identity
Warning: No scaling params for U_SYMAT5, using identity
Warning: No scaling params for U_SYMAT5, using identity
Warning: No scaling params for U_SYMAT5, using identity
Warning: No scaling params for U_SYMAT5, using identity
Warning: No scaling params for U_SYMAT5, using identity
Warning: No scaling params for U_SYMAT5, using identity
Warning: No scaling params for U_SYMAT5, using identity
Warning: No scaling params for U_SYMAT5, using identity
Warning: No scaling params for U_SYMAT5, using identity
  Metrics: PSNR=12.81 dB, MSE=6.861416e-01, MAE=4.926280e-01, RelErr=266297369.74%

Saving reconstructed data to ./reconstructed/bssn_gr_11200_adaptive_reconstructed.hdf5...
Saving latent codes to ./reconstructed/bssn_gr_11200_adaptive_latent_codes.npz...

================================================================================
RECONSTRUCTION SUMMARY
================================================================================
Variable     PSNR (dB)    MSE          MAE          Rel Error   
------------------------------------------------------------
U_ALPHA      2.45         5.607e-01    4.428e-01    83.73%      
U_B0         -13.68       7.015e-01    4.985e-01    4463494005.45%
U_B1         -13.67       7.019e-01    4.986e-01    4299931751.15%
U_B2         -19.95       7.018e-01    4.986e-01    2414593377.41%
U_BETA0      -4.36        6.981e-01    4.972e-01    7638781725.66%
U_BETA1      -3.95        7.009e-01    4.983e-01    7043366482.55%
U_BETA2      -21.74       7.011e-01    4.984e-01    3728453569.32%
U_CHI        2.33         5.812e-01    4.511e-01    132.67%     
U_GT0        4.42         6.820e-01    4.911e-01    6375543461.38%
U_GT1        4.69         6.887e-01    4.937e-01    6593674444.92%
U_GT2        -16.30       6.999e-01    4.979e-01    3064866134.70%
U_K          -0.65        6.950e-01    4.960e-01    4181563114.30%
U_SYMAT0     12.97        6.930e-01    4.952e-01    449642592.04%
U_SYMAT1     13.46        6.911e-01    4.945e-01    272177518.37%
U_SYMAT2     12.99        7.001e-01    4.979e-01    4995544576.55%
U_SYMAT3     13.45        6.925e-01    4.951e-01    176660673.99%
U_SYMAT4     13.15        6.997e-01    4.978e-01    1515934576.49%
U_SYMAT5     12.81        6.861e-01    4.926e-01    266297369.74%
U_SYMGT0     -3.11        4.589e-01    3.989e-01    39.51%      
U_SYMGT1     -4.43        6.931e-01    4.953e-01    8666367.65% 
U_SYMGT2     -16.84       7.017e-01    4.986e-01    218273574.81%
U_SYMGT3     -2.19        4.493e-01    3.944e-01    37.81%      
U_SYMGT4     -16.56       7.019e-01    4.986e-01    30283180.07%
U_SYMGT5     -11.56       4.768e-01    4.072e-01    42.90%      
------------------------------------------------------------
AVERAGE      -2.34        6.565e-01    4.803e-01    2405739534.72%

Total time: 10.9 seconds

Inference completed!
Reconstructed file: ./reconstructed/bssn_gr_11200_adaptive_reconstructed.hdf5
Latent codes: ./reconstructed/bssn_gr_11200_adaptive_latent_codes.npz

Creating visualization plots...
==============================
Loading data...
Found 24 variables to plot

Creating individual variable plots...
  Plotting U_ALPHA...
  Plotting U_CHI...
  Plotting U_K...
  Plotting U_GT0...
  Plotting U_GT1...
  Plotting U_GT2...
  Plotting U_BETA0...
  Plotting U_BETA1...
  Plotting U_BETA2...
  Plotting U_B0...
  Plotting U_B1...
  Plotting U_B2...
  Plotting U_SYMGT0...
  Plotting U_SYMGT1...
  Plotting U_SYMGT2...
  Plotting U_SYMGT3...
  Plotting U_SYMGT4...
  Plotting U_SYMGT5...
  Plotting U_SYMAT0...
  Plotting U_SYMAT1...
  Plotting U_SYMAT2...
  Plotting U_SYMAT3...
  Plotting U_SYMAT4...
  Plotting U_SYMAT5...

Creating summary plot...

Plots saved to: ./reconstruction_plots_adaptive
Summary plot: ./reconstruction_plots_adaptive/performance_summary.png

Variable assignments:
Poslog model: ['U_ALPHA', 'U_CHI', 'U_K', 'U_GT0', 'U_GT1', 'U_BETA0', 'U_BETA1', 'U_BETA2', 'U_B0', 'U_B1', 'U_SYMGT0', 'U_SYMGT1', 'U_SYMGT3', 'U_SYMGT4', 'U_SYMGT5', 'U_SYMAT0', 'U_SYMAT1', 'U_SYMAT5']
Asinh model: ['U_GT2', 'U_B2', 'U_SYMGT2', 'U_SYMAT2', 'U_SYMAT3', 'U_SYMAT4']

Creating focused plots for problematic variables...
Loading data...
Found 6 variables to plot

Creating individual variable plots...
  Plotting U_GT2...
  Plotting U_B2...
  Plotting U_SYMGT2...
  Plotting U_SYMAT2...
  Plotting U_SYMAT3...
  Plotting U_SYMAT4...

Creating summary plot...

Plots saved to: ./reconstruction_plots_adaptive/problematic_vars
Summary plot: ./reconstruction_plots_adaptive/problematic_vars/performance_summary.png

Variable assignments:
Poslog model: []
Asinh model: ['U_GT2', 'U_B2', 'U_SYMGT2', 'U_SYMAT2', 'U_SYMAT3', 'U_SYMAT4']

All processing completed!
========================
Reconstructed file: ./reconstructed/bssn_gr_11200_adaptive_reconstructed.hdf5
Latent codes: ./reconstructed/bssn_gr_11200_adaptive_latent_codes.npz
Plots saved to: ./reconstruction_plots_adaptive
