Tue Jul 22 23:13:09 2025       
+-----------------------------------------------------------------------------------------+
| NVIDIA-SMI 550.163.01             Driver Version: 550.163.01     CUDA Version: 12.4     |
|-----------------------------------------+------------------------+----------------------+
| GPU  Name                 Persistence-M | Bus-Id          Disp.A | Volatile Uncorr. ECC |
| Fan  Temp   Perf          Pwr:Usage/Cap |           Memory-Usage | GPU-Util  Compute M. |
|                                         |                        |               MIG M. |
|=========================================+========================+======================|
|   0  NVIDIA A40                     On  |   00000000:85:00.0 Off |                    0 |
|  0%   29C    P0             42W /  300W |       1MiB /  46068MiB |      0%      Default |
|                                         |                        |                  N/A |
+-----------------------------------------+------------------------+----------------------+
                                                                                         
+-----------------------------------------------------------------------------------------+
| Processes:                                                                              |
|  GPU   GI   CI        PID   Type   Process name                              GPU Memory |
|        ID   ID                                                               Usage      |
|=========================================================================================|
|  No running processes found                                                             |
+-----------------------------------------------------------------------------------------+
Starting Dual Model Inference
============================
Job ID: 11181153
Node: gpub017

Input file: /u/tawal/BSSN-Extracted-Data/tt_q08/bssn_gr_11200_extracted.hdf5
Output file: ./reconstructed/bssn_gr_11200_dual_reconstructed.hdf5
Poslog model: ./save/swae_dual_transform/poslog/best_model.pth
Asinh model: ./save/swae_dual_transform/asinh/best_model.pth

Using device: cuda
Loading dual models...
✓ Loaded poslog model from epoch 115
✓ Loaded asinh model from epoch 119

Processing /u/tawal/BSSN-Extracted-Data/tt_q08/bssn_gr_11200_extracted.hdf5...
Found 24 U_ variables to process
  Standard variables (poslog): 18
  Problematic variables (asinh): 6

Processing U_ALPHA...
  Using poslog model for U_ALPHA
  Metrics: PSNR=74.19 dB, MSE=0.000000, MAE=0.000058, RelErr=0.02%

Processing U_CHI...
  Using poslog model for U_CHI
  Metrics: PSNR=75.35 dB, MSE=0.000000, MAE=0.000060, RelErr=0.02%

Processing U_K...
  Using poslog model for U_K
  Metrics: PSNR=70.53 dB, MSE=0.000000, MAE=0.000031, RelErr=31.61%

Processing U_GT0...
  Using poslog model for U_GT0
  Metrics: PSNR=70.97 dB, MSE=0.000000, MAE=0.000077, RelErr=47.76%

Processing U_GT1...
  Using poslog model for U_GT1
  Metrics: PSNR=70.72 dB, MSE=0.000000, MAE=0.000083, RelErr=49.27%

Processing U_GT2...
  Using asinh model for U_GT2
  Metrics: PSNR=55.40 dB, MSE=0.000000, MAE=0.000070, RelErr=3130.91%

Processing U_BETA0...
  Using poslog model for U_BETA0
  Metrics: PSNR=73.94 dB, MSE=0.000000, MAE=0.000024, RelErr=56.89%

Processing U_BETA1...
  Using poslog model for U_BETA1
  Metrics: PSNR=73.18 dB, MSE=0.000000, MAE=0.000027, RelErr=52.79%

Processing U_BETA2...
  Using poslog model for U_BETA2
  Metrics: PSNR=54.90 dB, MSE=0.000000, MAE=0.000023, RelErr=29.06%

Processing U_B0...
  Using poslog model for U_B0
  Metrics: PSNR=65.55 dB, MSE=0.000000, MAE=0.000010, RelErr=34.27%

Processing U_B1...
  Using poslog model for U_B1
  Metrics: PSNR=66.35 dB, MSE=0.000000, MAE=0.000010, RelErr=33.14%

Processing U_B2...
  Using asinh model for U_B2
  Metrics: PSNR=59.41 dB, MSE=0.000000, MAE=0.000008, RelErr=2497.74%

Processing U_SYMGT0...
  Using poslog model for U_SYMGT0
  Metrics: PSNR=70.50 dB, MSE=0.000000, MAE=0.000041, RelErr=0.00%

Processing U_SYMGT1...
  Using poslog model for U_SYMGT1
  Metrics: PSNR=68.30 dB, MSE=0.000000, MAE=0.000049, RelErr=0.57%

Processing U_SYMGT2...
  Using asinh model for U_SYMGT2
  Metrics: PSNR=64.99 dB, MSE=0.000000, MAE=0.000025, RelErr=2292.69%

Processing U_SYMGT3...
  Using poslog model for U_SYMGT3
  Metrics: PSNR=70.13 dB, MSE=0.000000, MAE=0.000046, RelErr=0.00%

Processing U_SYMGT4...
  Using poslog model for U_SYMGT4
  Metrics: PSNR=56.43 dB, MSE=0.000000, MAE=0.000044, RelErr=4.41%

Processing U_SYMGT5...
  Using poslog model for U_SYMGT5
  Metrics: PSNR=67.42 dB, MSE=0.000000, MAE=0.000022, RelErr=0.00%

Processing U_SYMAT0...
  Using poslog model for U_SYMAT0
  Metrics: PSNR=46.18 dB, MSE=0.000331, MAE=0.000696, RelErr=4.57%

Processing U_SYMAT1...
  Using poslog model for U_SYMAT1
  Metrics: PSNR=43.78 dB, MSE=0.000643, MAE=0.000719, RelErr=3.42%

Processing U_SYMAT2...
  Using asinh model for U_SYMAT2
  Metrics: PSNR=56.17 dB, MSE=0.000034, MAE=0.000281, RelErr=52517.19%

Processing U_SYMAT3...
  Using asinh model for U_SYMAT3
  Metrics: PSNR=47.08 dB, MSE=0.000300, MAE=0.002257, RelErr=1740.19%

Processing U_SYMAT4...
  Using asinh model for U_SYMAT4
  Metrics: PSNR=56.56 dB, MSE=0.000032, MAE=0.000265, RelErr=16116.42%

Processing U_SYMAT5...
  Using poslog model for U_SYMAT5
  Metrics: PSNR=34.05 dB, MSE=0.005167, MAE=0.001057, RelErr=2.80%

Saving reconstructed data to ./reconstructed/bssn_gr_11200_dual_reconstructed.hdf5...
Saving latent codes to ./reconstructed/bssn_gr_11200_latent_codes.npz...

================================================================================
RECONSTRUCTION SUMMARY
================================================================================

Poslog Model Variables:
  U_ALPHA: PSNR=74.19 dB, MSE=0.000000
  U_B0: PSNR=65.55 dB, MSE=0.000000
  U_B1: PSNR=66.35 dB, MSE=0.000000
  U_BETA0: PSNR=73.94 dB, MSE=0.000000
  U_BETA1: PSNR=73.18 dB, MSE=0.000000
  U_BETA2: PSNR=54.90 dB, MSE=0.000000
  U_CHI: PSNR=75.35 dB, MSE=0.000000
  U_GT0: PSNR=70.97 dB, MSE=0.000000
  U_GT1: PSNR=70.72 dB, MSE=0.000000
  U_K: PSNR=70.53 dB, MSE=0.000000
  U_SYMAT0: PSNR=46.18 dB, MSE=0.000331
  U_SYMAT1: PSNR=43.78 dB, MSE=0.000643
  U_SYMAT5: PSNR=34.05 dB, MSE=0.005167
  U_SYMGT0: PSNR=70.50 dB, MSE=0.000000
  U_SYMGT1: PSNR=68.30 dB, MSE=0.000000
  U_SYMGT3: PSNR=70.13 dB, MSE=0.000000
  U_SYMGT4: PSNR=56.43 dB, MSE=0.000000
  U_SYMGT5: PSNR=67.42 dB, MSE=0.000000

Asinh Model Variables:
  U_B2: PSNR=59.41 dB, MSE=0.000000
  U_GT2: PSNR=55.40 dB, MSE=0.000000
  U_SYMAT2: PSNR=56.17 dB, MSE=0.000034
  U_SYMAT3: PSNR=47.08 dB, MSE=0.000300
  U_SYMAT4: PSNR=56.56 dB, MSE=0.000032
  U_SYMGT2: PSNR=64.99 dB, MSE=0.000000

Overall Performance:
  Average PSNR: 62.17 dB
  Average MSE: 0.000271
  Total time: 11.8 seconds

Inference completed!
Reconstructed file: ./reconstructed/bssn_gr_11200_dual_reconstructed.hdf5
Latent codes: ./reconstructed/bssn_gr_11200_latent_codes.npz

Creating visualization plots...
==============================
Loading data...
Found 24 variables to plot

Creating individual variable plots...
  Plotting U_ALPHA...
  Plotting U_CHI...
  Plotting U_K...
  Plotting U_GT0...
  Plotting U_GT1...
  Plotting U_GT2...
  Plotting U_BETA0...
  Plotting U_BETA1...
  Plotting U_BETA2...
  Plotting U_B0...
  Plotting U_B1...
  Plotting U_B2...
  Plotting U_SYMGT0...
  Plotting U_SYMGT1...
  Plotting U_SYMGT2...
  Plotting U_SYMGT3...
  Plotting U_SYMGT4...
  Plotting U_SYMGT5...
  Plotting U_SYMAT0...
  Plotting U_SYMAT1...
  Plotting U_SYMAT2...
  Plotting U_SYMAT3...
  Plotting U_SYMAT4...
  Plotting U_SYMAT5...

Creating summary plot...

Plots saved to: ./reconstruction_plots
Summary plot: ./reconstruction_plots/performance_summary.png

Variable assignments:
Poslog model: ['U_ALPHA', 'U_CHI', 'U_K', 'U_GT0', 'U_GT1', 'U_BETA0', 'U_BETA1', 'U_BETA2', 'U_B0', 'U_B1', 'U_SYMGT0', 'U_SYMGT1', 'U_SYMGT3', 'U_SYMGT4', 'U_SYMGT5', 'U_SYMAT0', 'U_SYMAT1', 'U_SYMAT5']
Asinh model: ['U_GT2', 'U_B2', 'U_SYMGT2', 'U_SYMAT2', 'U_SYMAT3', 'U_SYMAT4']

Creating focused plots for problematic variables...
Loading data...
Found 6 variables to plot

Creating individual variable plots...
  Plotting U_GT2...
  Plotting U_B2...
  Plotting U_SYMGT2...
  Plotting U_SYMAT2...
  Plotting U_SYMAT3...
  Plotting U_SYMAT4...

Creating summary plot...

Plots saved to: ./reconstruction_plots/problematic_vars
Summary plot: ./reconstruction_plots/problematic_vars/performance_summary.png

Variable assignments:
Poslog model: []
Asinh model: ['U_GT2', 'U_B2', 'U_SYMGT2', 'U_SYMAT2', 'U_SYMAT3', 'U_SYMAT4']

All processing completed!
========================
Reconstructed file: ./reconstructed/bssn_gr_11200_dual_reconstructed.hdf5
Latent codes: ./reconstructed/bssn_gr_11200_latent_codes.npz
Plots saved to: ./reconstruction_plots
